Version 4
SHEET 1 1216 684
WIRE 1088 -144 1088 -160
WIRE -320 -112 -320 -128
WIRE -320 -112 -384 -112
WIRE -384 -96 -384 -112
WIRE -320 -96 -320 -112
WIRE -112 -32 -112 -144
WIRE 512 -16 512 -96
WIRE 1088 0 1088 -64
WIRE 240 48 160 48
WIRE 240 64 240 48
WIRE 160 112 160 48
WIRE 592 112 592 64
WIRE -384 144 -416 144
WIRE 64 144 -384 144
WIRE 112 144 64 144
WIRE 1088 144 1088 64
WIRE 320 160 192 160
WIRE 512 160 512 64
WIRE 512 160 400 160
WIRE -112 176 -112 48
WIRE 112 176 -112 176
WIRE 912 176 832 176
WIRE 912 192 912 176
WIRE -416 224 -416 144
WIRE -112 224 -112 176
WIRE 128 240 128 208
WIRE 160 240 160 208
WIRE 240 240 240 128
WIRE 240 240 160 240
WIRE 832 240 832 176
WIRE 240 272 160 272
WIRE 592 272 592 192
WIRE 784 272 592 272
WIRE 240 288 240 272
WIRE 512 288 512 160
WIRE 1088 288 1088 144
WIRE 1088 288 864 288
WIRE 512 304 512 288
WIRE 784 304 512 304
WIRE -416 320 -416 304
WIRE 160 336 160 272
WIRE -112 368 -112 304
WIRE 112 368 -112 368
WIRE 592 368 592 272
WIRE 800 368 800 336
WIRE 832 368 832 336
WIRE 912 368 912 256
WIRE 912 368 832 368
WIRE 320 384 192 384
WIRE 512 384 512 304
WIRE 512 384 400 384
WIRE 64 400 64 144
WIRE 112 400 64 400
WIRE 512 416 512 384
WIRE 128 464 128 432
WIRE 160 464 160 432
WIRE 240 464 240 352
WIRE 240 464 160 464
WIRE -112 480 -112 368
WIRE 592 480 592 448
WIRE -112 592 -112 560
FLAG -384 -96 0
FLAG -320 -208 +V
FLAG 144 112 +V
FLAG 1088 -160 +V
FLAG -320 -16 -V
FLAG 144 208 -V
FLAG -416 320 0
FLAG 144 336 +V
FLAG 144 432 -V
FLAG -112 592 -V
FLAG -112 -144 +V
FLAG -384 144 IN
FLAG 1088 144 OUT
FLAG 512 480 -V
FLAG 512 -96 +V
FLAG 512 288 RC
FLAG 816 240 +V
FLAG 816 336 -V
FLAG 592 480 -V
FLAG 592 64 +V
FLAG 128 464 -V
FLAG 128 240 -V
FLAG 800 368 -V
DATAFLAG -32 176 ""
DATAFLAG -32 368 ""
DATAFLAG 704 272 ""
SYMBOL Comparators\\LT1011 144 160 R0
SYMATTR InstName U1
SYMBOL cap 224 64 R0
SYMATTR InstName C1
SYMATTR Value 0.1µ
SYMBOL voltage -320 -112 R0
WINDOW 123 0 0 Left 0
WINDOW 39 0 0 Left 0
SYMATTR InstName V1
SYMATTR Value 15
SYMBOL voltage -320 -224 R0
WINDOW 123 0 0 Left 0
WINDOW 39 0 0 Left 0
SYMATTR InstName V2
SYMATTR Value 15
SYMBOL res 1072 -160 R0
SYMATTR InstName R1
SYMATTR Value 7.15k
SYMBOL LED 1072 0 R0
SYMATTR InstName D1
SYMATTR Value NSCW100
SYMBOL voltage -416 208 R0
WINDOW 123 24 124 Left 2
WINDOW 39 24 152 Left 2
SYMATTR InstName V3
SYMATTR Value PULSE(0 20 1m 10u 10u 0.1m)
SYMATTR Value2 AC 1
SYMATTR SpiceLine Rser=50 Cpar=0.04p
SYMBOL Comparators\\LT1011 144 384 R0
SYMATTR InstName U2
SYMBOL cap 224 288 R0
SYMATTR InstName C3
SYMATTR Value 0.1µ
SYMBOL res -128 208 R0
SYMATTR InstName R2
SYMATTR Value 100k
SYMBOL res -128 -48 R0
SYMATTR InstName R3
SYMATTR Value 7.15k
SYMBOL res -128 464 R0
SYMATTR InstName R4
SYMATTR Value 7.15k
SYMBOL res 416 144 R90
WINDOW 0 0 56 VBottom 2
WINDOW 3 32 56 VTop 2
SYMATTR InstName R5
SYMATTR Value 7.15k
SYMBOL res 416 368 R90
WINDOW 0 0 56 VBottom 2
WINDOW 3 32 56 VTop 2
SYMATTR InstName R6
SYMATTR Value 7.15k
SYMBOL cap 496 416 R0
SYMATTR InstName C4
SYMATTR Value 10n
SYMBOL res 528 -32 M0
SYMATTR InstName R7
SYMATTR Value 10Meg
SYMBOL Comparators\\LT1011 816 288 R0
SYMATTR InstName U3
SYMBOL cap 896 192 R0
SYMATTR InstName C5
SYMATTR Value 0.1µ
SYMBOL res 576 96 R0
SYMATTR InstName R8
SYMATTR Value 7.15k
SYMBOL res 576 352 R0
SYMATTR InstName R9
SYMATTR Value 100k
TEXT -450 666 Left 2 !.tran 0 50m 0
