Version 4
SHEET 1 2060 1152
WIRE -512 -480 -512 -512
WIRE -512 -480 -608 -480
WIRE -608 -448 -608 -480
WIRE -512 -448 -512 -480
WIRE -1744 -224 -1744 -416
WIRE -1744 -224 -1856 -224
WIRE -1856 -96 -1856 -224
WIRE -1744 -32 -1744 -224
WIRE -1664 -32 -1744 -32
WIRE -1552 -32 -1584 -32
WIRE -1456 -32 -1552 -32
WIRE -1024 -32 -1376 -32
WIRE -720 -32 -720 -48
WIRE -720 -32 -1024 -32
WIRE -544 -32 -720 -32
WIRE -464 -32 -544 -32
WIRE -336 -32 -464 -32
WIRE -720 -16 -720 -32
WIRE -80 -16 -80 -32
WIRE -1856 16 -1856 -16
WIRE -1552 16 -1552 -32
WIRE -336 80 -336 -32
WIRE -272 80 -336 80
WIRE -80 80 -80 48
WIRE -80 80 -192 80
WIRE 48 80 -80 80
WIRE 176 80 48 80
WIRE -1744 96 -1744 -32
WIRE -544 96 -544 -32
WIRE -464 96 -464 -32
WIRE -80 96 -80 80
WIRE 176 112 0 112
WIRE 416 112 336 112
WIRE 512 112 416 112
WIRE 608 112 592 112
WIRE 688 112 608 112
WIRE 848 112 848 96
WIRE 848 112 768 112
WIRE 880 112 880 96
WIRE 1088 112 880 112
WIRE 1200 112 1168 112
WIRE 1312 112 1200 112
WIRE 1376 112 1312 112
WIRE -1552 128 -1552 96
WIRE -1552 128 -1600 128
WIRE -1600 144 -1600 128
WIRE 176 144 144 144
WIRE 432 144 336 144
WIRE 608 144 608 112
WIRE 1200 144 1200 112
WIRE 1312 144 1312 112
WIRE -1552 160 -1552 128
WIRE -272 176 -336 176
WIRE -80 176 -80 160
WIRE -80 176 -192 176
WIRE 48 176 -80 176
WIRE 176 176 48 176
WIRE -80 192 -80 176
WIRE 608 240 608 208
WIRE 1200 256 1200 224
WIRE 1312 256 1312 208
WIRE 1312 256 1200 256
WIRE -80 272 -80 256
WIRE 1200 272 1200 256
WIRE -1744 288 -1744 176
WIRE -1664 288 -1744 288
WIRE -1552 288 -1552 240
WIRE -1552 288 -1584 288
WIRE -1456 288 -1552 288
WIRE -1024 288 -1376 288
WIRE -720 288 -720 272
WIRE -720 288 -1024 288
WIRE -544 288 -544 160
WIRE -544 288 -720 288
WIRE -464 288 -464 160
WIRE -464 288 -544 288
WIRE -336 288 -336 176
WIRE -336 288 -464 288
WIRE 0 288 0 112
WIRE 32 288 0 288
WIRE 144 288 144 144
WIRE 144 288 112 288
WIRE -720 304 -720 288
WIRE 432 352 432 144
WIRE 608 352 432 352
WIRE 0 384 0 288
WIRE 48 384 0 384
WIRE 144 384 144 288
WIRE 144 384 112 384
WIRE 656 448 576 448
WIRE 736 448 736 432
WIRE 736 448 656 448
WIRE 736 464 736 448
WIRE -1744 480 -1744 288
WIRE 608 480 608 352
WIRE 608 480 576 480
WIRE 656 480 656 448
WIRE 432 496 432 352
WIRE 496 496 432 496
WIRE 656 560 656 544
WIRE 736 560 736 544
FLAG 1200 272 0
FLAG -720 48 -V
FLAG -720 -112 +V
FLAG -608 -448 0
FLAG -512 -368 -V
FLAG -512 -592 +V
FLAG -720 368 -V
FLAG -720 208 +V
FLAG -1856 16 0
FLAG 336 80 +V
FLAG 336 176 -V
FLAG -80 272 0
FLAG -80 -32 0
FLAG -1024 -32 IN+
FLAG -1024 288 IN-
FLAG 48 80 ATTEN+
FLAG 48 176 ATTEN-
FLAG 1376 112 OUT
IOPIN 1376 112 Out
FLAG 496 464 -V
FLAG 496 432 +V
FLAG 656 560 0
FLAG 736 560 -V
FLAG 736 352 +V
FLAG 416 112 SE
FLAG 608 240 0
FLAG 880 -32 -V
FLAG 848 -32 +V
FLAG -1600 144 0
DATAFLAG -880 -32 ""
DATAFLAG -880 288 ""
SYMBOL AutoGenerated\\AD8428 256 128 M180
SYMATTR InstName U1
SYMBOL res 1184 96 R90
WINDOW 0 0 56 VBottom 2
WINDOW 3 32 56 VTop 2
SYMATTR InstName R3
SYMATTR Value 50
SYMBOL diode -560 96 R0
WINDOW 0 -35 15 Left 2
WINDOW 3 -134 39 Left 2
SYMATTR InstName D1
SYMATTR Value BAV199HM
SYMBOL diode -448 160 R180
WINDOW 0 -39 46 Left 2
WINDOW 3 -136 15 Left 2
SYMATTR InstName D2
SYMATTR Value BAV199HM
SYMBOL res -176 64 R90
WINDOW 0 0 56 VBottom 2
WINDOW 3 32 56 VTop 2
SYMATTR InstName R5
SYMATTR Value 33
SYMATTR SpiceLine tol=0.1
SYMBOL diode -704 48 R180
WINDOW 0 -37 49 Left 2
WINDOW 3 -133 27 Left 2
SYMATTR InstName D3
SYMATTR Value BAV199HM
SYMBOL diode -704 -48 R180
WINDOW 0 -40 43 Left 2
WINDOW 3 -134 11 Left 2
SYMATTR InstName D4
SYMATTR Value BAV199HM
SYMBOL res -176 160 R90
WINDOW 0 0 56 VBottom 2
WINDOW 3 32 56 VTop 2
SYMATTR InstName R6
SYMATTR Value 33
SYMATTR SpiceLine tol=0.1
SYMBOL voltage -512 -608 R0
WINDOW 123 0 0 Left 0
WINDOW 39 24 124 Left 2
SYMATTR SpiceLine Rser=0
SYMATTR InstName V1
SYMATTR Value 15
SYMBOL voltage -512 -464 R0
WINDOW 123 0 0 Left 0
WINDOW 39 24 124 Left 2
SYMATTR SpiceLine Rser=0
SYMATTR InstName V2
SYMATTR Value 15
SYMBOL voltage -1856 -112 R0
WINDOW 123 0 0 Left 0
WINDOW 39 0 0 Left 0
SYMATTR InstName VCM
SYMATTR Value 1
SYMBOL diode -704 368 R180
WINDOW 0 -38 41 Left 2
WINDOW 3 -135 19 Left 2
SYMATTR InstName D5
SYMATTR Value BAV199HM
SYMBOL diode -704 272 R180
WINDOW 0 -34 39 Left 2
WINDOW 3 -136 11 Left 2
SYMATTR InstName D6
SYMATTR Value BAV199HM
SYMBOL voltage -1744 80 M0
WINDOW 3 46 56 Left 2
WINDOW 123 47 114 Left 2
WINDOW 39 47 142 Left 2
WINDOW 0 47 21 Left 2
SYMATTR Value PULSE(0 .001 .1u 10n 10n .5u 2u)
SYMATTR Value2 AC 1
SYMATTR InstName VDiff
SYMBOL cap 640 480 R0
SYMATTR InstName C11
SYMATTR Value 10µ
SYMBOL res 720 448 R0
SYMATTR InstName R13
SYMATTR Value 9.7k
SYMBOL res 720 336 R0
SYMATTR InstName R14
SYMATTR Value 11k
SYMBOL res 608 96 R90
WINDOW 0 0 56 VBottom 2
WINDOW 3 32 56 VTop 2
SYMATTR InstName R15
SYMATTR Value 500
SYMATTR SpiceLine tol=0.1
SYMBOL AutoGenerated\\ADA4004 544 464 M0
SYMATTR InstName U5
SYMBOL res 128 272 R90
WINDOW 0 0 56 VBottom 2
WINDOW 3 32 56 VTop 2
SYMATTR InstName R16
SYMATTR Value 316
SYMBOL res -1568 -48 R90
WINDOW 0 0 56 VBottom 2
WINDOW 3 32 56 VTop 2
SYMATTR InstName R4
SYMATTR Value 225
SYMBOL res -1568 272 R90
WINDOW 0 0 56 VBottom 2
WINDOW 3 32 56 VTop 2
SYMATTR InstName R17
SYMATTR Value 225
SYMBOL res -1568 0 R0
SYMATTR InstName R19
SYMATTR Value 1Meg
SYMBOL res -1568 144 R0
SYMATTR InstName R20
SYMATTR Value 1Meg
SYMBOL res 784 96 R90
WINDOW 0 0 56 VBottom 2
WINDOW 3 32 56 VTop 2
SYMATTR InstName R7
SYMATTR Value 120
SYMBOL AutoGenerated\\BUF634A 864 32 R270
SYMATTR InstName U2
SYMBOL res -1360 272 R90
WINDOW 0 0 56 VBottom 2
WINDOW 3 32 56 VTop 2
SYMATTR InstName R1
SYMATTR Value 33
SYMATTR SpiceLine tol=0.1
SYMBOL res -1360 -48 R90
WINDOW 0 0 56 VBottom 2
WINDOW 3 32 56 VTop 2
SYMATTR InstName R2
SYMATTR Value 33
SYMATTR SpiceLine tol=0.1
TEXT -984 456 Left 2 !.op\n;.ac dec 100 10 10Meg\n;.tran 0 1u 0 1n\n.noise V(OUT) VDiff dec 100 100 3.5Meg
TEXT -1776 296 Right 2 ;LoZ Input: 50k to GND, 50 series\nProtected to 40V
TEXT -1776 488 Right 2 ;HiZ Input: 1Meg to GND, 950k series
TEXT -1776 680 Right 2 ;AC Input: 2Hz -3dB with 1.5uF Input Capacitor
TEXT 456 -640 Left 2 ;Optional parallel InAmps to reduce noise. Increases output offset voltage.\nOnly effective when amplifier noise dominates input resistance noise.\nAC Input: Reduces flatband noise by 1/2\nHiZ Input: Increases noise\nLoZ Input: Decreases noise by 20%\n0 Ohm Input: Decreases noise by 25%\n \nSometimes they need to be deleted for the output simulation to work,\nit'll output SNAN otherwise.
TEXT 832 440 Left 2 ;Offset Trim
TEXT 680 232 Left 2 ;Switchable 100kHz Low-Pass
TEXT -8 496 Left 2 ;Switchable Gain Resistor:\n2000X - None\n1000X - 6000 ohm\n500X - 2000\n100X - 316\n50X - 154
