Version 4
SHEET 1 2060 1152
WIRE -512 -480 -512 -512
WIRE -512 -480 -608 -480
WIRE -608 -448 -608 -480
WIRE -512 -448 -512 -480
WIRE 1312 -224 784 -224
WIRE -1440 -128 -1472 -128
WIRE -1328 -128 -1376 -128
WIRE -1664 -32 -1744 -32
WIRE -1552 -32 -1584 -32
WIRE -1472 -32 -1472 -128
WIRE -1472 -32 -1552 -32
WIRE -1440 -32 -1472 -32
WIRE -1328 -32 -1328 -128
WIRE -1328 -32 -1360 -32
WIRE -1280 -32 -1328 -32
WIRE -1104 -32 -1280 -32
WIRE -992 -32 -1024 -32
WIRE -720 -32 -720 -48
WIRE -720 -32 -992 -32
WIRE -544 -32 -720 -32
WIRE -464 -32 -544 -32
WIRE -336 -32 -464 -32
WIRE -720 -16 -720 -32
WIRE -80 -16 -80 -32
WIRE -1280 0 -1280 -32
WIRE -1552 16 -1552 -32
WIRE -1328 32 -1328 -32
WIRE -336 80 -336 -32
WIRE -272 80 -336 80
WIRE -80 80 -80 48
WIRE -80 80 -192 80
WIRE 48 80 -80 80
WIRE 176 80 48 80
WIRE 784 80 784 -224
WIRE 816 80 784 80
WIRE -1744 96 -1744 -32
WIRE -544 96 -544 -32
WIRE -464 96 -464 -32
WIRE -80 96 -80 80
WIRE 1056 96 1056 32
WIRE 1056 96 880 96
WIRE 176 112 0 112
WIRE 416 112 336 112
WIRE 464 112 416 112
WIRE 608 112 544 112
WIRE 816 112 608 112
WIRE 1088 112 1088 32
WIRE 1200 112 1088 112
WIRE 1312 112 1312 -224
WIRE 1312 112 1280 112
WIRE 1568 112 1312 112
WIRE -1552 128 -1552 96
WIRE -1552 128 -1600 128
WIRE -1328 128 -1328 96
WIRE -1328 128 -1552 128
WIRE -1280 128 -1280 80
WIRE -1280 128 -1328 128
WIRE -1600 144 -1600 128
WIRE 176 144 144 144
WIRE 432 144 336 144
WIRE -1552 160 -1552 128
WIRE 608 160 608 112
WIRE -1328 176 -1328 128
WIRE -1280 176 -1280 128
WIRE -272 176 -336 176
WIRE -80 176 -80 160
WIRE -80 176 -192 176
WIRE 48 176 -80 176
WIRE 176 176 48 176
WIRE -80 192 -80 176
WIRE 608 256 608 224
WIRE -80 272 -80 256
WIRE -1744 288 -1744 176
WIRE -1664 288 -1744 288
WIRE -1552 288 -1552 240
WIRE -1552 288 -1584 288
WIRE -1472 288 -1552 288
WIRE -1440 288 -1472 288
WIRE -1328 288 -1328 240
WIRE -1328 288 -1360 288
WIRE -1280 288 -1280 256
WIRE -1280 288 -1328 288
WIRE -1104 288 -1280 288
WIRE -992 288 -1024 288
WIRE -720 288 -720 272
WIRE -720 288 -992 288
WIRE -544 288 -544 160
WIRE -544 288 -720 288
WIRE -464 288 -464 160
WIRE -464 288 -544 288
WIRE -336 288 -336 176
WIRE -336 288 -464 288
WIRE 0 288 0 112
WIRE 32 288 0 288
WIRE 144 288 144 144
WIRE 144 288 112 288
WIRE -720 304 -720 288
WIRE 432 352 432 144
WIRE 608 352 432 352
WIRE -1472 368 -1472 288
WIRE -1440 368 -1472 368
WIRE -1328 368 -1328 288
WIRE -1328 368 -1376 368
WIRE 0 384 0 288
WIRE 48 384 0 384
WIRE 144 384 144 288
WIRE 144 384 112 384
WIRE 608 480 608 352
WIRE 608 480 560 480
WIRE 432 496 432 352
WIRE 496 496 432 496
WIRE 656 512 560 512
WIRE 736 512 736 496
WIRE 736 512 656 512
WIRE 736 528 736 512
WIRE 656 544 656 512
WIRE 656 624 656 608
WIRE 736 624 736 608
FLAG -720 48 -V
FLAG -720 -112 +V
FLAG -608 -448 0
FLAG -512 -368 -V
FLAG -512 -592 +V
FLAG -720 368 -V
FLAG -720 208 +V
FLAG 336 80 +V
FLAG 336 176 -V
FLAG -80 272 0
FLAG -80 -32 0
FLAG -992 -32 IN+
FLAG -992 288 IN-
FLAG 48 80 ATTEN+
FLAG 48 176 ATTEN-
FLAG 1568 112 OUT
IOPIN 1568 112 Out
FLAG 528 528 -V
FLAG 528 464 +V
FLAG 656 624 0
FLAG 736 624 -V
FLAG 736 416 +V
FLAG 416 112 SE
FLAG 608 256 0
FLAG 1088 -96 -V
FLAG 1056 -96 +V
FLAG -1600 144 0
FLAG 848 128 -V
FLAG 848 64 +V
DATAFLAG -880 -32 ""
DATAFLAG -880 288 ""
DATAFLAG 1456 112 ""
DATAFLAG 528 352 ""
DATAFLAG 640 112 ""
SYMBOL AutoGenerated\\AD8428 256 128 M180
SYMATTR InstName U1
SYMBOL res 1296 96 R90
WINDOW 0 0 56 VBottom 2
WINDOW 3 32 56 VTop 2
SYMATTR InstName R3
SYMATTR Value 50
SYMBOL diode -560 96 R0
WINDOW 0 -35 15 Left 2
WINDOW 3 -134 39 Left 2
SYMATTR InstName D1
SYMATTR Value BAV199HM
SYMBOL diode -448 160 R180
WINDOW 0 -39 46 Left 2
WINDOW 3 -136 15 Left 2
SYMATTR InstName D2
SYMATTR Value BAV199HM
SYMBOL res -176 64 R90
WINDOW 0 0 56 VBottom 2
WINDOW 3 32 56 VTop 2
SYMATTR InstName R5
SYMATTR Value 33
SYMATTR SpiceLine tol=0.1
SYMBOL diode -704 48 R180
WINDOW 0 -37 49 Left 2
WINDOW 3 -133 27 Left 2
SYMATTR InstName D3
SYMATTR Value BAV199HM
SYMBOL diode -704 -48 R180
WINDOW 0 -40 43 Left 2
WINDOW 3 -134 11 Left 2
SYMATTR InstName D4
SYMATTR Value BAV199HM
SYMBOL res -176 160 R90
WINDOW 0 0 56 VBottom 2
WINDOW 3 32 56 VTop 2
SYMATTR InstName R6
SYMATTR Value 33
SYMATTR SpiceLine tol=0.1
SYMBOL voltage -512 -608 R0
WINDOW 123 0 0 Left 0
WINDOW 39 24 124 Left 2
SYMATTR SpiceLine Rser=0
SYMATTR InstName V1
SYMATTR Value 15
SYMBOL voltage -512 -464 R0
WINDOW 123 0 0 Left 0
WINDOW 39 24 124 Left 2
SYMATTR SpiceLine Rser=0
SYMATTR InstName V2
SYMATTR Value 15
SYMBOL diode -704 368 R180
WINDOW 0 -38 41 Left 2
WINDOW 3 -135 19 Left 2
SYMATTR InstName D5
SYMATTR Value BAV199HM
SYMBOL diode -704 272 R180
WINDOW 0 -34 39 Left 2
WINDOW 3 -136 11 Left 2
SYMATTR InstName D6
SYMATTR Value BAV199HM
SYMBOL voltage -1744 80 M0
WINDOW 3 46 56 Left 2
WINDOW 123 47 114 Left 2
WINDOW 39 47 142 Left 2
WINDOW 0 47 21 Left 2
SYMATTR Value SINE(0 .01 100k)
SYMATTR Value2 AC 1
SYMATTR InstName VDiff
SYMBOL cap 640 544 R0
SYMATTR InstName C11
SYMATTR Value 10µ
SYMBOL res 720 512 R0
SYMATTR InstName R13
SYMATTR Value 10.78k
SYMBOL res 720 400 R0
SYMATTR InstName R14
SYMATTR Value 11k
SYMBOL res 560 96 R90
WINDOW 0 0 56 VBottom 2
WINDOW 3 32 56 VTop 2
SYMATTR InstName R15
SYMATTR Value 200
SYMATTR SpiceLine tol=0.1
SYMBOL res -1568 -48 R90
WINDOW 0 0 56 VBottom 2
WINDOW 3 32 56 VTop 2
SYMATTR InstName R4
SYMATTR Value 225
SYMBOL res -1568 272 R90
WINDOW 0 0 56 VBottom 2
WINDOW 3 32 56 VTop 2
SYMATTR InstName R17
SYMATTR Value 225
SYMBOL res -1568 0 R0
SYMATTR InstName R19
SYMATTR Value 1Meg
SYMBOL res -1568 144 R0
SYMATTR InstName R20
SYMATTR Value 1Meg
SYMBOL AutoGenerated\\BUF634A 1072 -32 R270
SYMATTR InstName U2
SYMBOL res -1008 272 R90
WINDOW 0 0 56 VBottom 2
WINDOW 3 32 56 VTop 2
SYMATTR InstName R1
SYMATTR Value 33
SYMATTR SpiceLine tol=0.1
SYMBOL res -1008 -48 R90
WINDOW 0 0 56 VBottom 2
WINDOW 3 32 56 VTop 2
SYMATTR InstName R2
SYMATTR Value 33
SYMATTR SpiceLine tol=0.1
SYMBOL res -1344 -48 R90
WINDOW 0 0 56 VBottom 2
WINDOW 3 32 56 VTop 2
SYMATTR InstName R
SYMATTR Value 990k
SYMBOL res -1344 272 R90
WINDOW 0 0 56 VBottom 2
WINDOW 3 32 56 VTop 2
SYMATTR InstName R10
SYMATTR Value 990k
SYMBOL res -1296 -16 R0
SYMATTR InstName R9
SYMATTR Value 10100
SYMBOL res -1296 160 R0
SYMATTR InstName R11
SYMATTR Value 10100
SYMBOL cap -1376 -144 R90
WINDOW 0 0 32 VBottom 2
WINDOW 3 32 32 VTop 2
SYMATTR InstName C1
SYMATTR Value 10.4p
SYMBOL cap -1376 352 R90
WINDOW 0 0 32 VBottom 2
WINDOW 3 32 32 VTop 2
SYMATTR InstName C2
SYMATTR Value 10.4p
SYMBOL cap -1312 240 R180
WINDOW 0 24 56 Left 2
WINDOW 3 24 8 Left 2
SYMATTR InstName C3
SYMATTR Value 1n
SYMBOL cap -1312 96 R180
WINDOW 0 24 56 Left 2
WINDOW 3 24 8 Left 2
SYMATTR InstName C4
SYMATTR Value 1n
SYMBOL OpAmps\\OP1177 528 432 M0
SYMATTR InstName U3
SYMBOL OpAmps\\AD8671 848 32 R0
SYMATTR InstName U4
TEXT -984 456 Left 2 !.op\n;.ac dec 100 10 10Meg\n.tran 0 100u 0\n;.noise V(OUT) VDiff dec 100 0.1 1Meg
TEXT 456 -640 Left 2 ;Optional parallel InAmps to reduce noise. Increases output offset voltage.\nOnly effective when amplifier noise dominates input resistance noise.\nAC Input: Reduces flatband noise by 1/2\nHiZ Input: Increases noise\nLoZ Input: Decreases noise by 20%\n0 Ohm Input: Decreases noise by 25%\n \nSometimes they need to be deleted for the output simulation to work,\nit'll output SNAN otherwise.
TEXT 832 440 Left 2 ;Offset Trim
TEXT 720 216 Left 2 ;Switchable 100kHz Low-Pass\n100kHz: 8.2nF
TEXT -8 496 Left 2 ;Switchable Gain Resistor:\n2000X - None\n1000X - 6000 ohm\n500X - 2000\n100X - 316\n50X - 154\n10X - 30.2
