Version 4
SHEET 1 2232 2000
WIRE 720 -96 656 -96
WIRE 832 -96 784 -96
WIRE 384 -32 240 -32
WIRE 656 -32 656 -96
WIRE 656 -32 384 -32
WIRE 832 -32 832 -96
WIRE 912 -32 832 -32
WIRE 976 -32 912 -32
WIRE 1136 -32 976 -32
WIRE 1200 -32 1136 -32
WIRE 1584 -32 1200 -32
WIRE 656 -16 656 -32
WIRE 384 32 384 -32
WIRE 912 32 912 -32
WIRE 976 32 976 -32
WIRE -768 64 -832 64
WIRE -688 64 -768 64
WIRE -608 64 -688 64
WIRE -512 64 -608 64
WIRE -496 64 -512 64
WIRE -400 64 -416 64
WIRE -688 96 -688 64
WIRE -64 96 -288 96
WIRE 80 96 -64 96
WIRE 176 96 80 96
WIRE 240 96 240 -32
WIRE 240 96 176 96
WIRE -832 112 -832 64
WIRE 80 112 80 96
WIRE -64 128 -64 96
WIRE -512 144 -512 64
WIRE -400 144 -400 64
WIRE -288 144 -288 96
WIRE 1200 160 1200 -32
WIRE 80 192 80 176
WIRE 1584 192 1584 -32
WIRE -176 208 -240 208
WIRE -64 208 -176 208
WIRE -832 224 -832 192
WIRE -608 224 -608 64
WIRE -560 224 -608 224
WIRE 736 240 736 208
WIRE 832 240 832 -32
WIRE 832 240 736 240
WIRE -176 288 -240 288
WIRE 384 288 384 96
WIRE 384 288 304 288
WIRE 592 288 384 288
WIRE 656 288 592 288
WIRE 832 288 656 288
WIRE 912 288 912 96
WIRE 912 288 832 288
WIRE 976 288 976 96
WIRE 976 288 912 288
WIRE 1200 288 1200 240
WIRE 1200 288 976 288
WIRE 1584 304 1584 256
WIRE 1584 304 1472 304
WIRE 1664 304 1584 304
WIRE 1856 304 1744 304
WIRE 1200 320 1200 288
WIRE 304 336 304 288
WIRE 1472 336 1472 304
WIRE -608 352 -608 224
WIRE -560 352 -608 352
WIRE 1584 352 1584 304
WIRE -176 368 -240 368
WIRE -80 368 -176 368
WIRE -64 368 -80 368
WIRE 832 368 832 288
WIRE 1856 368 1856 304
WIRE -176 416 -176 368
WIRE -64 432 -64 368
WIRE 656 448 656 288
WIRE 1472 448 1472 416
WIRE -512 464 -512 432
WIRE 384 480 384 288
WIRE 912 480 912 288
WIRE 976 480 976 288
WIRE 832 512 832 448
WIRE 832 512 800 512
WIRE 832 528 832 512
WIRE -608 544 -608 352
WIRE -496 544 -608 544
WIRE -400 544 -400 432
WIRE -400 544 -416 544
WIRE -384 544 -400 544
WIRE -288 544 -288 432
WIRE -288 544 -320 544
WIRE -272 544 -288 544
WIRE -176 544 -176 496
WIRE -176 544 -208 544
WIRE -64 544 -64 496
WIRE -64 544 -176 544
WIRE 64 544 -64 544
WIRE -176 576 -176 544
WIRE 64 624 64 544
WIRE 160 624 64 624
WIRE 384 624 384 544
WIRE 384 624 160 624
WIRE 480 624 384 624
WIRE 512 624 480 624
WIRE 832 624 832 608
WIRE 832 624 800 624
WIRE 912 624 912 544
WIRE 912 624 832 624
WIRE 976 624 976 544
WIRE 976 624 912 624
WIRE 1120 624 976 624
WIRE 1200 624 1200 400
WIRE 1200 624 1120 624
WIRE 1584 624 1584 416
WIRE 1584 624 1200 624
WIRE -176 656 -176 640
WIRE 480 736 480 624
WIRE 608 736 480 736
WIRE 832 736 832 624
WIRE 832 736 672 736
FLAG 1136 -32 VOUT+
FLAG 1120 624 VOUT-
FLAG 1856 448 0
FLAG 1472 448 0
FLAG 304 336 0
FLAG -512 464 0
FLAG -176 656 0
FLAG -688 160 0
FLAG -64 288 0
FLAG 80 192 0
FLAG -832 224 0
FLAG -768 64 VIN
FLAG 176 96 VINT+
FLAG 160 624 VINT-
FLAG -176 208 FB1
FLAG -80 368 FB2
SYMBOL cap 368 480 R0
SYMATTR InstName C1
SYMATTR Value 1µ
SYMATTR SpiceLine V=25 Irms=0 Rser=0.001 Lser=0
SYMBOL cap 368 32 R0
SYMATTR InstName C2
SYMATTR Value 1µ
SYMATTR SpiceLine V=25 Irms=0 Rser=0.001 Lser=0
SYMBOL cap 960 480 R0
SYMATTR InstName C6
SYMATTR Value 1µ
SYMATTR SpiceLine V=25 Irms=0 Rser=0.001 Lser=0 mfg="TDK" pn="C575OX7RIE106M" type="X7R"
SYMBOL cap 960 32 R0
SYMATTR InstName C7
SYMATTR Value 1µ
SYMATTR SpiceLine V=25 Irms=0 Rser=0.001 Lser=0 mfg="TDK" pn="C575OX7RIE106M" type="X7R"
SYMBOL polcap 896 32 R0
WINDOW 0 23 -10 Left 2
WINDOW 3 -32 -12 Left 2
SYMATTR InstName C9
SYMATTR Value 47µ
SYMATTR Description Capacitor
SYMATTR Type cap
SYMATTR SpiceLine V=25 Irms=36m Rser=1.35945 Lser=2.49256n
SYMBOL polcap 896 480 R0
WINDOW 0 23 -10 Left 2
WINDOW 3 -32 -12 Left 2
SYMATTR InstName C10
SYMATTR Value 47µ
SYMATTR Description Capacitor
SYMATTR Type cap
SYMATTR SpiceLine V=25 Irms=36m Rser=1.35945 Lser=2.49256n
SYMBOL res 1760 288 R90
WINDOW 0 0 56 VBottom 2
WINDOW 3 32 56 VTop 2
SYMATTR InstName RProbe
SYMATTR Value 50
SYMBOL res 1184 144 R0
SYMATTR InstName RLoad
SYMATTR Value 200
SYMBOL res 1184 304 R0
SYMATTR InstName RLoad1
SYMATTR Value 200
SYMBOL diode 1600 416 R180
WINDOW 0 -43 60 Left 2
WINDOW 3 -142 6 Left 2
SYMATTR InstName D4
SYMATTR Value BAV199HM
SYMBOL diode 1600 256 R180
WINDOW 0 -43 58 Left 2
WINDOW 3 -147 25 Left 2
SYMATTR InstName D8
SYMATTR Value BAV199HM
SYMBOL res 1456 320 R0
SYMATTR InstName RTerm
SYMATTR Value 50k
SYMBOL PowerProducts\\LT3088 656 96 R0
SYMATTR InstName U1
SYMBOL res 576 192 R0
SYMATTR InstName R1
SYMATTR Value 300k
SYMBOL res 816 512 R0
SYMATTR InstName R2
SYMATTR Value 1Meg
SYMBOL res 816 352 R0
SYMATTR InstName R3
SYMATTR Value 88k
SYMBOL PowerProducts\\LT3463 -400 288 R0
SYMATTR InstName U3
SYMBOL cap -320 528 R90
WINDOW 0 0 32 VBottom 2
WINDOW 3 32 32 VTop 2
SYMATTR InstName C3
SYMATTR Value 1µ
SYMATTR SpiceLine V=35 Irms=0 Rser=0 Lser=0 mfg="Murata" pn="GCM21BR7YA105MA55" type="X7R"
SYMBOL schottky -208 528 R90
WINDOW 0 0 32 VBottom 2
WINDOW 3 32 32 VTop 2
SYMATTR InstName D1
SYMATTR Value MBRS130L
SYMATTR Description Diode
SYMATTR Type diode
SYMBOL res -192 400 R0
SYMATTR InstName R5
SYMATTR Value 1Meg
SYMBOL res -192 272 R0
SYMATTR InstName R6
SYMATTR Value 75k
SYMBOL cap -192 576 R0
SYMATTR InstName C4
SYMATTR Value 1µ
SYMATTR SpiceLine V=25 Irms=0 Rser=0 Lser=0 mfg="Murata" pn="GCM188R71E105MA64" type="X7R"
SYMBOL cap -80 432 R0
SYMATTR InstName C5
SYMATTR Value 10p
SYMATTR SpiceLine V=25 Irms=0 Rser=0 Lser=0 mfg="Murata" pn="GCM0335C1E100JA16" type="C0G"
SYMBOL cap -704 96 R0
SYMATTR InstName C8
SYMATTR Value 10µ
SYMATTR SpiceLine V=6.3 Irms=0 Rser=0 Lser=0 mfg="Murata" pn="GRM188R60J106ME84" type="X5R"
SYMBOL res -80 192 R0
SYMATTR InstName R7
SYMATTR Value 83k
SYMBOL res -80 112 R0
SYMATTR InstName R8
SYMATTR Value 1Meg
SYMBOL cap 64 112 R0
SYMATTR InstName C11
SYMATTR Value 1µ
SYMATTR SpiceLine V=25 Irms=0 Rser=0.00804838 Lser=269.844p mfg="Würth Elektronik" pn="885012207078 WCAP-CSGP 0805" type="X7R"
SYMBOL diode 608 752 R270
WINDOW 0 32 32 VTop 2
WINDOW 3 0 32 VBottom 2
SYMATTR InstName D2
SYMATTR Value BAV199HM
SYMBOL diode 784 -112 R90
WINDOW 0 0 32 VBottom 2
WINDOW 3 32 32 VTop 2
SYMATTR InstName D3
SYMATTR Value BAV199HM
SYMBOL voltage -832 96 R0
WINDOW 123 0 0 Left 0
WINDOW 39 24 124 Left 2
SYMATTR InstName V1
SYMATTR Value 4.5
SYMATTR SpiceLine Rser=0.6
SYMBOL ind -512 80 R270
WINDOW 0 32 56 VTop 2
WINDOW 3 5 56 VBottom 2
SYMATTR InstName L1
SYMATTR Value 22µ
SYMATTR SpiceLine Ipk=0.92 Rser=0.348
SYMBOL ind -512 560 R270
WINDOW 0 32 56 VTop 2
WINDOW 3 5 56 VBottom 2
SYMATTR InstName L2
SYMATTR Value 22µ
SYMATTR SpiceLine Ipk=0.92 Rser=0.348
SYMBOL PowerProducts\\LT3015 656 560 M180
SYMATTR InstName U4
TEXT -200 704 Left 2 !.tran 0 10m 0 10n\n;.ac dec 100 1 3.5Meg
