Version 4
SHEET 1 2232 2000
WIRE 160 -32 64 -32
WIRE 288 -32 240 -32
WIRE 384 -32 352 -32
WIRE 448 -32 384 -32
WIRE 528 -32 448 -32
WIRE 560 -32 528 -32
WIRE 736 -32 704 -32
WIRE 912 -32 736 -32
WIRE 976 -32 912 -32
WIRE 1040 -32 976 -32
WIRE 1136 -32 1040 -32
WIRE 1200 -32 1136 -32
WIRE 1584 -32 1200 -32
WIRE 736 -16 736 -32
WIRE 384 32 384 -32
WIRE 912 32 912 -32
WIRE 976 32 976 -32
WIRE 1040 32 1040 -32
WIRE 64 112 64 -32
WIRE 528 112 528 -32
WIRE 1200 160 1200 -32
WIRE 1584 192 1584 -32
WIRE 528 208 528 192
WIRE 608 208 608 192
WIRE 608 208 528 208
WIRE 736 208 736 112
WIRE 736 208 608 208
WIRE 528 224 528 208
WIRE 608 224 608 208
WIRE 448 256 448 -32
WIRE 64 288 64 272
WIRE 64 288 -16 288
WIRE 384 288 384 96
WIRE 384 288 64 288
WIRE 528 288 384 288
WIRE 608 288 528 288
WIRE 912 288 912 96
WIRE 912 288 608 288
WIRE 976 288 976 96
WIRE 976 288 912 288
WIRE 1040 288 1040 96
WIRE 1040 288 976 288
WIRE 1200 288 1200 240
WIRE 1200 288 1040 288
WIRE 64 304 64 288
WIRE 1584 304 1584 256
WIRE 1584 304 1472 304
WIRE 1664 304 1584 304
WIRE 1856 304 1744 304
WIRE -16 320 -16 288
WIRE 1200 320 1200 288
WIRE 1472 352 1472 304
WIRE 1584 352 1584 304
WIRE 1856 368 1856 304
WIRE 528 384 528 352
WIRE 608 384 608 352
WIRE 608 384 528 384
WIRE 736 384 608 384
WIRE 528 400 528 384
WIRE 608 400 608 384
WIRE 1472 448 1472 432
WIRE 384 480 384 288
WIRE 736 480 736 384
WIRE 912 480 912 288
WIRE 976 480 976 288
WIRE 1040 480 1040 288
WIRE 64 624 64 464
WIRE 288 624 64 624
WIRE 384 624 384 544
WIRE 384 624 352 624
WIRE 448 624 448 320
WIRE 448 624 384 624
WIRE 528 624 528 480
WIRE 528 624 448 624
WIRE 560 624 528 624
WIRE 736 624 736 608
WIRE 736 624 704 624
WIRE 912 624 912 544
WIRE 912 624 736 624
WIRE 976 624 976 544
WIRE 976 624 912 624
WIRE 1040 624 1040 544
WIRE 1040 624 976 624
WIRE 1120 624 1040 624
WIRE 1200 624 1200 400
WIRE 1200 624 1120 624
WIRE 1584 624 1584 416
WIRE 1584 624 1200 624
FLAG -16 320 0
FLAG 1136 -32 VOUT+
FLAG 1120 624 VOUT-
FLAG 1856 448 0
FLAG 1472 448 0
SYMBOL Misc\\battery 64 96 R0
WINDOW 0 46 18 Left 2
WINDOW 3 46 42 Left 2
WINDOW 123 0 0 Left 0
WINDOW 39 46 70 Left 2
SYMATTR InstName V1
SYMATTR Value 9.6
SYMATTR SpiceLine Rser=1
SYMBOL Misc\\battery 64 176 R0
WINDOW 0 46 18 Left 2
WINDOW 3 46 42 Left 2
WINDOW 123 0 0 Left 0
WINDOW 39 46 70 Left 2
SYMATTR InstName V2
SYMATTR Value 9.6
SYMATTR SpiceLine Rser=1
SYMBOL Misc\\battery 64 288 R0
WINDOW 0 46 18 Left 2
WINDOW 3 46 42 Left 2
WINDOW 123 0 0 Left 0
WINDOW 39 46 70 Left 2
SYMATTR InstName V3
SYMATTR Value 9.6
SYMATTR SpiceLine Rser=1
SYMBOL Misc\\battery 64 368 R0
WINDOW 0 46 18 Left 2
WINDOW 3 46 42 Left 2
WINDOW 123 0 0 Left 0
WINDOW 39 46 70 Left 2
SYMATTR InstName V4
SYMATTR Value 9.6
SYMATTR SpiceLine Rser=1
SYMBOL diode 288 -16 R270
WINDOW 0 32 32 VTop 2
WINDOW 3 0 32 VBottom 2
SYMATTR InstName D1
SYMATTR Value 1N4001
SYMBOL diode 352 640 M270
WINDOW 0 32 32 VTop 2
WINDOW 3 0 32 VBottom 2
SYMATTR InstName D2
SYMATTR Value 1N4001
SYMBOL cap 368 480 R0
SYMATTR InstName C1
SYMATTR Value 10µ
SYMATTR SpiceLine V=25 Irms=0 Rser=0.001 Lser=0 mfg="TDK" pn="C575OX7RIE106M" type="X7R"
SYMBOL cap 368 32 R0
SYMATTR InstName C2
SYMATTR Value 10µ
SYMATTR SpiceLine V=25 Irms=0 Rser=0.001 Lser=0 mfg="TDK" pn="C575OX7RIE106M" type="X7R"
SYMBOL res 592 96 R0
SYMATTR InstName R1
SYMATTR Value 100
SYMBOL res 592 384 R0
SYMATTR InstName R2
SYMATTR Value 100
SYMBOL cap 432 256 R0
WINDOW 0 -25 3 Left 2
WINDOW 3 -9 57 Left 2
SYMATTR InstName C3
SYMATTR Value 0.1µ
SYMATTR SpiceLine V=50 Irms=0 Rser=0.0488383 Lser=600p mfg="Würth Elektronik" pn="885012205086 WCAP-CSGP 0402" type="X7R"
SYMBOL res 512 384 R0
SYMATTR InstName R3
SYMATTR Value 4.7k
SYMBOL res 512 96 R0
SYMATTR InstName R4
SYMATTR Value 4.7k
SYMBOL polcap 512 224 R0
WINDOW 0 23 -10 Left 2
WINDOW 3 -32 -12 Left 2
SYMATTR InstName C4
SYMATTR Value 47µ
SYMATTR Description Capacitor
SYMATTR Type cap
SYMATTR SpiceLine V=6.3 Irms=36m Rser=1.35945 Lser=2.49256n mfg="Würth Elektronik" pn="865230142003 WCAP-AS5H 5x5,5" type="Al electrolytic"
SYMBOL polcap 512 288 R0
WINDOW 0 -17 63 Left 2
WINDOW 3 24 61 Left 2
SYMATTR InstName C5
SYMATTR Value 47µ
SYMATTR Description Capacitor
SYMATTR Type cap
SYMATTR SpiceLine V=6.3 Irms=36m Rser=1.35945 Lser=2.49256n mfg="Würth Elektronik" pn="865230142003 WCAP-AS5H 5x5,5" type="Al electrolytic"
SYMBOL cap 960 480 R0
SYMATTR InstName C6
SYMATTR Value 10µ
SYMATTR SpiceLine V=25 Irms=0 Rser=0.001 Lser=0 mfg="TDK" pn="C575OX7RIE106M" type="X7R"
SYMBOL cap 960 32 R0
SYMATTR InstName C7
SYMATTR Value 10µ
SYMATTR SpiceLine V=25 Irms=0 Rser=0.001 Lser=0 mfg="TDK" pn="C575OX7RIE106M" type="X7R"
SYMBOL polcap 896 32 R0
WINDOW 0 23 -10 Left 2
WINDOW 3 -32 -12 Left 2
SYMATTR InstName C9
SYMATTR Value 47µ
SYMATTR Description Capacitor
SYMATTR Type cap
SYMATTR SpiceLine V=6.3 Irms=36m Rser=1.35945 Lser=2.49256n mfg="Würth Elektronik" pn="865230142003 WCAP-AS5H 5x5,5" type="Al electrolytic"
SYMBOL polcap 896 480 R0
WINDOW 0 23 -10 Left 2
WINDOW 3 -32 -12 Left 2
SYMATTR InstName C10
SYMATTR Value 47µ
SYMATTR Description Capacitor
SYMATTR Type cap
SYMATTR SpiceLine V=6.3 Irms=36m Rser=1.35945 Lser=2.49256n mfg="Würth Elektronik" pn="865230142003 WCAP-AS5H 5x5,5" type="Al electrolytic"
SYMBOL voltage 256 -32 R90
WINDOW 0 -32 56 VBottom 2
WINDOW 3 32 56 VTop 2
WINDOW 123 0 0 Left 0
WINDOW 39 0 0 Left 0
SYMATTR InstName VNoise
SYMATTR Value 0
SYMBOL voltage 1856 352 R0
WINDOW 123 0 0 Left 0
WINDOW 39 0 0 Left 0
SYMATTR InstName VFault
SYMATTR Value PULSE(0 40 1m 10u 10u 10m)
SYMBOL res 1760 288 R90
WINDOW 0 0 56 VBottom 2
WINDOW 3 32 56 VTop 2
SYMATTR InstName RProbe
SYMATTR Value 50
SYMBOL Darlington\\TIP127 560 480 M90
SYMATTR InstName U1
SYMBOL Darlington\\TIP142 560 96 R270
SYMATTR InstName U2
SYMBOL res 1184 144 R0
SYMATTR InstName RLoad
SYMATTR Value 50
SYMBOL res 1184 304 R0
SYMATTR InstName RLoad1
SYMATTR Value 200
SYMBOL zener 592 288 M180
WINDOW 0 42 29 Left 2
WINDOW 3 81 29 Left 2
SYMATTR InstName D5
SYMATTR Value BZX84B16VL
SYMBOL diode 1600 416 R180
WINDOW 0 -43 60 Left 2
WINDOW 3 -142 6 Left 2
SYMATTR InstName D4
SYMATTR Value BAV199HM
SYMBOL diode 1600 256 R180
WINDOW 0 -43 58 Left 2
WINDOW 3 -147 25 Left 2
SYMATTR InstName D8
SYMATTR Value BAV199HM
SYMBOL res 1456 336 R0
SYMATTR InstName RTerm
SYMATTR Value 50k
SYMBOL zener 592 352 M180
WINDOW 0 42 29 Left 2
WINDOW 3 81 29 Left 2
SYMATTR InstName D3
SYMATTR Value BZX84B16VL
SYMBOL zener 1024 544 M180
WINDOW 0 42 29 Left 2
WINDOW 3 81 29 Left 2
SYMATTR InstName D6
SYMATTR Value BZX84B16VL
SYMBOL zener 1024 96 M180
WINDOW 0 42 29 Left 2
WINDOW 3 81 29 Left 2
SYMATTR InstName D7
SYMATTR Value BZX84B16VL
SYMBOL diode 720 -16 R0
WINDOW 0 40 11 Left 2
WINDOW 3 39 43 Left 2
SYMATTR InstName D9
SYMATTR Value 1N4001
SYMBOL diode 720 48 R0
WINDOW 0 43 11 Left 2
WINDOW 3 41 38 Left 2
SYMATTR InstName D10
SYMATTR Value 1N4001
SYMBOL diode 720 544 R0
WINDOW 0 43 11 Left 2
WINDOW 3 41 38 Left 2
SYMATTR InstName D11
SYMATTR Value 1N4001
SYMBOL diode 720 480 R0
WINDOW 0 43 11 Left 2
WINDOW 3 41 38 Left 2
SYMATTR InstName D12
SYMATTR Value 1N4001
TEXT 200 736 Left 2 !.MODEL 1N4001 D(\n+IS=1.22478e-08 RS=0.0414786 N=1.83369 EG=0.6\n+XTI=0.05 BV=50 IBV=5e-08 CJO=1e-11\n+VJ=0.7 M=0.5 FC=0.5 TT=1e-09\n+KF=0 AF=1)
TEXT -200 704 Left 2 !.tran 0 50m 0 5u
TEXT 200 936 Left 2 !.model LED D(Is=1e-19 N=1.6 Rs=2.5 Eg=2.1)
