Version 4
SHEET 1 880 680
WIRE -128 96 -240 96
WIRE -64 96 -128 96
WIRE 128 96 -64 96
WIRE 176 96 128 96
WIRE 304 96 256 96
WIRE 336 96 304 96
WIRE 416 96 400 96
WIRE 448 96 416 96
WIRE 608 96 528 96
WIRE 640 96 608 96
WIRE 688 96 640 96
WIRE 768 96 688 96
WIRE -240 112 -240 96
WIRE -128 112 -128 96
WIRE 416 112 416 96
WIRE 640 112 640 96
WIRE 688 112 688 96
WIRE 768 112 768 96
WIRE 128 144 128 96
WIRE -128 192 -128 176
WIRE -240 208 -240 192
WIRE -64 208 -64 96
WIRE -16 208 -64 208
WIRE 304 208 304 96
WIRE 304 208 272 208
WIRE 640 208 640 176
WIRE 688 208 688 176
WIRE 768 208 768 192
WIRE -96 288 -128 288
WIRE -16 288 -32 288
WIRE 480 288 272 288
WIRE 496 288 480 288
WIRE 608 288 608 96
WIRE 608 288 576 288
WIRE -112 368 -128 368
WIRE -16 368 -32 368
WIRE 320 368 272 368
WIRE 416 368 384 368
WIRE 480 368 480 288
WIRE 512 368 480 368
WIRE 608 368 608 288
WIRE 608 368 576 368
WIRE 128 448 128 432
FLAG 128 448 0
FLAG 688 208 0
FLAG 416 368 0
FLAG -128 368 0
FLAG -128 288 0
FLAG -240 208 0
FLAG 768 208 0
FLAG -240 96 IN
FLAG 768 96 OUT
FLAG -128 192 0
FLAG 416 176 0
FLAG 640 208 0
SYMBOL PowerProducts\\LT3580 128 288 R0
SYMATTR InstName U1
SYMBOL ind2 160 112 R270
WINDOW 0 32 56 VTop 2
WINDOW 3 5 56 VBottom 2
SYMATTR InstName L1
SYMATTR Value 27µ
SYMATTR Type ind
SYMATTR SpiceLine Rser=.285
SYMBOL schottky 400 112 R0
SYMATTR InstName D1
SYMATTR Value 1N5818
SYMATTR Description Diode
SYMATTR Type diode
SYMBOL cap 672 112 R0
SYMATTR InstName C1
SYMATTR Value 10µ
SYMATTR SpiceLine V=25 Irms=0 Rser=0 Lser=0 mfg="Murata" pn="GRM21BZ71E106KE15" type="X7R"
SYMBOL cap 384 352 R90
WINDOW 0 0 32 VBottom 2
WINDOW 3 32 32 VTop 2
WINDOW 39 60 32 VTop 2
SYMATTR InstName C2
SYMATTR Value 2.2n
SYMATTR SpiceLine Rser=10K
SYMBOL res -16 352 R90
WINDOW 0 0 56 VBottom 2
WINDOW 3 32 56 VTop 2
SYMATTR InstName R1
SYMATTR Value 450k
SYMBOL cap -32 272 R90
WINDOW 0 0 32 VBottom 2
WINDOW 3 32 32 VTop 2
SYMATTR InstName C3
SYMATTR Value .1µ
SYMBOL voltage -240 96 R0
WINDOW 123 0 0 Left 0
WINDOW 39 24 124 Left 2
SYMATTR InstName V1
SYMATTR Value 4.5
SYMATTR SpiceLine Rser=.5
SYMBOL res 592 272 R90
WINDOW 0 0 56 VBottom 2
WINDOW 3 32 56 VTop 2
SYMATTR InstName R2
SYMATTR Value 180k
SYMBOL res 752 96 R0
SYMATTR InstName Rload
SYMATTR Value 100
SYMBOL cap -144 112 R0
SYMATTR InstName C4
SYMATTR Value 10µF
SYMBOL cap 400 80 R90
WINDOW 0 0 32 VBottom 2
WINDOW 3 32 32 VTop 2
SYMATTR InstName C5
SYMATTR Value 1µ
SYMBOL ind2 544 112 M270
WINDOW 0 32 56 VTop 2
WINDOW 3 5 56 VBottom 2
SYMATTR InstName L2
SYMATTR Value 27µ
SYMATTR Type ind
SYMATTR SpiceLine Rser=.285
SYMBOL cap 576 352 R90
WINDOW 0 0 32 VBottom 2
WINDOW 3 32 32 VTop 2
SYMATTR InstName C6
SYMATTR Value 100p
SYMBOL polcap 624 112 R0
WINDOW 3 24 56 Left 2
SYMATTR InstName C7
SYMATTR Value 47µ
SYMATTR Description Capacitor
SYMATTR Type cap
SYMATTR SpiceLine V=25 Irms=70m Rser=0.526 Lser=18.5243n mfg="Würth Elektronik" pn="865090449007 WCAP-ASLU 8x6,5" type="Al electrolytic"
TEXT 264 472 Left 2 !.tran 0 1m 0 10n startup
TEXT 280 -48 Left 2 !K1 L1 L2 1
