Version 4
SHEET 1 1064 840
WIRE -272 -48 -416 -48
WIRE -176 -48 -272 -48
WIRE 80 -48 -176 -48
WIRE 208 -48 80 -48
WIRE -416 -32 -416 -48
WIRE -272 -32 -272 -48
WIRE 80 -16 80 -48
WIRE 208 -16 208 -48
WIRE -176 32 -176 -48
WIRE -32 32 -176 32
WIRE 480 32 320 32
WIRE 528 32 480 32
WIRE 608 32 528 32
WIRE 688 32 608 32
WIRE 528 48 528 32
WIRE 608 48 608 32
WIRE 688 48 688 32
WIRE -416 64 -416 48
WIRE -272 64 -272 32
WIRE 352 112 320 112
WIRE 608 144 608 112
WIRE 688 144 688 128
WIRE -128 192 -144 192
WIRE -32 192 -48 192
WIRE 352 192 320 192
WIRE 480 192 480 32
WIRE 480 192 432 192
WIRE -32 272 -64 272
WIRE -32 352 -192 352
WIRE -176 432 -176 32
WIRE -32 432 -176 432
WIRE 528 432 528 400
WIRE 528 432 320 432
WIRE 608 432 528 432
WIRE 704 432 608 432
WIRE 608 448 608 432
WIRE 704 448 704 432
WIRE 480 512 320 512
WIRE 480 544 480 512
WIRE 608 544 608 512
WIRE 608 544 480 544
WIRE 704 544 704 528
WIRE 704 544 608 544
WIRE -128 592 -144 592
WIRE -32 592 -48 592
WIRE 352 592 320 592
WIRE 480 592 480 544
WIRE 480 592 432 592
WIRE -192 672 -192 352
WIRE -32 672 -192 672
WIRE 144 816 144 800
FLAG -416 64 0
FLAG -144 192 0
FLAG 352 112 0
FLAG 688 144 0
FLAG -416 -48 IN
FLAG 688 32 OUT1
FLAG -144 592 0
FLAG 144 816 0
FLAG 704 544 OUT2
FLAG 528 400 0
FLAG -64 272 0
FLAG -272 64 0
FLAG 608 144 0
SYMBOL voltage -416 -48 R0
WINDOW 123 0 0 Left 2
WINDOW 39 24 124 Left 2
SYMATTR SpiceLine Rser=0.4
SYMATTR InstName V1
SYMATTR Value 4.5
SYMBOL res -32 176 R90
WINDOW 0 0 56 VBottom 2
WINDOW 3 32 56 VTop 2
SYMATTR InstName R1
SYMATTR Value 73.2k
SYMBOL res 448 176 R90
WINDOW 0 0 56 VBottom 2
WINDOW 3 32 56 VTop 2
SYMATTR InstName R2
SYMATTR Value 165k
SYMBOL res 672 32 R0
SYMATTR InstName Rload1
SYMATTR Value 150
SYMBOL res -32 576 R90
WINDOW 0 0 56 VBottom 2
WINDOW 3 32 56 VTop 2
SYMATTR InstName R3
SYMATTR Value 73.2k
SYMBOL res 448 576 R90
WINDOW 0 0 56 VBottom 2
WINDOW 3 32 56 VTop 2
SYMATTR InstName R4
SYMATTR Value 178k
SYMBOL res 688 432 R0
SYMATTR InstName Rload2
SYMATTR Value 150
SYMBOL LTM8049 144 368 R0
SYMATTR InstName U1
SYMBOL cap -288 -32 R0
SYMATTR InstName C3
SYMATTR Value 10µ
SYMBOL cap 592 448 R0
SYMATTR InstName C4
SYMATTR Value 47µ
SYMATTR SpiceLine V=16 Irms=11.7 Rser=0.00333036 Lser=0 mfg="KEMET" pn="C1210C476K4PAC" type="X5R"
SYMBOL cap 592 48 R0
SYMATTR InstName C5
SYMATTR Value 22µ
SYMATTR SpiceLine V=25 Irms=0 Rser=0 Lser=0 mfg="Murata" pn="GRM32ER71E226KE15" type="X7R"
TEXT 424 712 Left 2 !.tran 2m
