Version 4
SHEET 1 1800 2000
WIRE 288 -32 256 -32
WIRE 384 -32 352 -32
WIRE 448 -32 384 -32
WIRE 528 -32 448 -32
WIRE 560 -32 528 -32
WIRE 608 -32 560 -32
WIRE 752 -32 704 -32
WIRE 832 -32 752 -32
WIRE 912 -32 832 -32
WIRE 976 -32 912 -32
WIRE 1040 -32 976 -32
WIRE 1104 -32 1040 -32
WIRE 1408 -32 1104 -32
WIRE 752 0 752 -32
WIRE 384 32 384 -32
WIRE 912 32 912 -32
WIRE 976 32 976 -32
WIRE 1040 32 1040 -32
WIRE 1408 32 1408 -32
WIRE 560 48 560 -32
WIRE 656 48 656 32
WIRE 160 80 64 80
WIRE 256 80 256 -32
WIRE 256 80 240 80
WIRE 64 112 64 80
WIRE 528 112 528 -32
WIRE 528 208 528 192
WIRE 608 208 608 192
WIRE 608 208 528 208
WIRE 752 208 752 64
WIRE 752 208 608 208
WIRE 528 224 528 208
WIRE 608 224 608 208
WIRE 448 256 448 -32
WIRE 1104 256 1104 -32
WIRE 64 288 64 272
WIRE 64 288 -16 288
WIRE 384 288 384 96
WIRE 384 288 64 288
WIRE 528 288 384 288
WIRE 608 288 528 288
WIRE 912 288 912 96
WIRE 912 288 608 288
WIRE 976 288 976 96
WIRE 976 288 912 288
WIRE 1040 288 1040 96
WIRE 1040 288 976 288
WIRE 1216 288 1040 288
WIRE 64 304 64 288
WIRE -16 320 -16 288
WIRE 528 384 528 352
WIRE 608 384 608 352
WIRE 608 384 528 384
WIRE 752 384 608 384
WIRE 528 400 528 384
WIRE 608 400 608 384
WIRE 384 480 384 288
WIRE 912 480 912 288
WIRE 976 480 976 288
WIRE 1040 480 1040 288
WIRE 64 496 64 464
WIRE 256 496 64 496
WIRE 752 512 752 384
WIRE 256 608 256 496
WIRE 288 608 256 608
WIRE 384 608 384 544
WIRE 384 608 352 608
WIRE 448 608 448 320
WIRE 448 608 384 608
WIRE 528 608 528 480
WIRE 528 608 448 608
WIRE 560 608 560 544
WIRE 560 608 528 608
WIRE 608 608 560 608
WIRE 752 608 752 576
WIRE 752 608 704 608
WIRE 832 608 752 608
WIRE 912 608 912 544
WIRE 912 608 832 608
WIRE 976 608 976 544
WIRE 976 608 912 608
WIRE 1040 608 1040 544
WIRE 1040 608 976 608
WIRE 1104 608 1104 320
WIRE 1104 608 1040 608
WIRE 1216 608 1104 608
FLAG -16 320 0
FLAG 832 -32 VOUT+
FLAG 832 608 VOUT-
FLAG 1408 192 0
SYMBOL Misc\\battery 64 96 R0
WINDOW 0 46 18 Left 2
WINDOW 3 46 42 Left 2
WINDOW 123 0 0 Left 0
WINDOW 39 46 67 Left 2
SYMATTR InstName V1
SYMATTR Value 9.6
SYMATTR SpiceLine Rser=2
SYMBOL Misc\\battery 64 176 R0
WINDOW 0 46 18 Left 2
WINDOW 3 46 42 Left 2
WINDOW 123 0 0 Left 0
WINDOW 39 46 67 Left 2
SYMATTR InstName V2
SYMATTR Value 9.6
SYMATTR SpiceLine Rser=2
SYMBOL Misc\\battery 64 288 R0
WINDOW 0 46 18 Left 2
WINDOW 3 46 42 Left 2
WINDOW 123 0 0 Left 0
WINDOW 39 46 67 Left 2
SYMATTR InstName V3
SYMATTR Value 9.6
SYMATTR SpiceLine Rser=2
SYMBOL Misc\\battery 64 368 R0
WINDOW 0 46 18 Left 2
WINDOW 3 46 42 Left 2
WINDOW 123 0 0 Left 0
WINDOW 39 46 67 Left 2
SYMATTR InstName V4
SYMATTR Value 9.6
SYMATTR SpiceLine Rser=2
SYMBOL diode 288 -16 R270
WINDOW 0 32 32 VTop 2
WINDOW 3 0 32 VBottom 2
SYMATTR InstName D1
SYMATTR Value 1N4001
SYMBOL diode 352 624 M270
WINDOW 0 32 32 VTop 2
WINDOW 3 0 32 VBottom 2
SYMATTR InstName D2
SYMATTR Value 1N4001
SYMBOL cap 368 480 R0
SYMATTR InstName C1
SYMATTR Value 10µ
SYMATTR SpiceLine V=25 Irms=0 Rser=0.001 Lser=0 mfg="TDK" pn="C575OX7RIE106M" type="X7R"
SYMBOL cap 368 32 R0
SYMATTR InstName C2
SYMATTR Value 10µ
SYMATTR SpiceLine V=25 Irms=0 Rser=0.001 Lser=0 mfg="TDK" pn="C575OX7RIE106M" type="X7R"
SYMBOL diode 736 0 R0
WINDOW 0 43 17 Left 2
WINDOW 3 41 48 Left 2
SYMATTR InstName D3
SYMATTR Value 1N4001
SYMBOL res 592 96 R0
SYMATTR InstName R1
SYMATTR Value 100
SYMBOL res 592 384 R0
SYMATTR InstName R2
SYMATTR Value 100
SYMBOL diode 736 512 R0
WINDOW 0 48 3 Left 2
WINDOW 3 45 31 Left 2
SYMATTR InstName D4
SYMATTR Value 1N4001
SYMBOL cap 432 256 R0
WINDOW 0 -25 3 Left 2
WINDOW 3 -9 57 Left 2
SYMATTR InstName C3
SYMATTR Value 0.1µ
SYMATTR SpiceLine V=50 Irms=0 Rser=0.0488383 Lser=600p mfg="Würth Elektronik" pn="885012205086 WCAP-CSGP 0402" type="X7R"
SYMBOL res 512 384 R0
SYMATTR InstName R3
SYMATTR Value 220
SYMBOL res 512 96 R0
SYMATTR InstName R4
SYMATTR Value 220
SYMBOL polcap 512 224 R0
WINDOW 0 23 -10 Left 2
WINDOW 3 -32 -12 Left 2
SYMATTR InstName C4
SYMATTR Value 47µ
SYMATTR Description Capacitor
SYMATTR Type cap
SYMATTR SpiceLine V=6.3 Irms=36m Rser=1.35945 Lser=2.49256n mfg="Würth Elektronik" pn="865230142003 WCAP-AS5H 5x5,5" type="Al electrolytic"
SYMBOL polcap 512 288 R0
WINDOW 0 -17 63 Left 2
WINDOW 3 24 61 Left 2
SYMATTR InstName C5
SYMATTR Value 47µ
SYMATTR Description Capacitor
SYMATTR Type cap
SYMATTR SpiceLine V=6.3 Irms=36m Rser=1.35945 Lser=2.49256n mfg="Würth Elektronik" pn="865230142003 WCAP-AS5H 5x5,5" type="Al electrolytic"
SYMBOL zener 592 288 M180
WINDOW 0 42 29 Left 2
WINDOW 3 81 29 Left 2
SYMATTR InstName D5
SYMATTR Value BZX84C15L
SYMBOL zener 592 352 M180
WINDOW 0 40 31 Left 2
WINDOW 3 80 33 Left 2
SYMATTR InstName D6
SYMATTR Value BZX84C15L
SYMBOL cap 960 480 R0
SYMATTR InstName C6
SYMATTR Value 10µ
SYMATTR SpiceLine V=25 Irms=0 Rser=0.001 Lser=0 mfg="TDK" pn="C575OX7RIE106M" type="X7R"
SYMBOL cap 960 32 R0
SYMATTR InstName C7
SYMATTR Value 10µ
SYMATTR SpiceLine V=25 Irms=0 Rser=0.001 Lser=0 mfg="TDK" pn="C575OX7RIE106M" type="X7R"
SYMBOL cap 1088 256 R0
WINDOW 0 -25 3 Left 2
WINDOW 3 -9 57 Left 2
SYMATTR InstName C8
SYMATTR Value 0.1µ
SYMATTR SpiceLine V=50 Irms=0 Rser=0.0488383 Lser=600p mfg="Würth Elektronik" pn="885012205086 WCAP-CSGP 0402" type="X7R"
SYMBOL polcap 896 32 R0
WINDOW 0 23 -10 Left 2
WINDOW 3 -32 -12 Left 2
SYMATTR InstName C9
SYMATTR Value 47µ
SYMATTR Description Capacitor
SYMATTR Type cap
SYMATTR SpiceLine V=6.3 Irms=36m Rser=1.35945 Lser=2.49256n mfg="Würth Elektronik" pn="865230142003 WCAP-AS5H 5x5,5" type="Al electrolytic"
SYMBOL polcap 896 480 R0
WINDOW 0 23 -10 Left 2
WINDOW 3 -32 -12 Left 2
SYMATTR InstName C10
SYMATTR Value 47µ
SYMATTR Description Capacitor
SYMATTR Type cap
SYMATTR SpiceLine V=6.3 Irms=36m Rser=1.35945 Lser=2.49256n mfg="Würth Elektronik" pn="865230142003 WCAP-AS5H 5x5,5" type="Al electrolytic"
SYMBOL voltage 256 80 R90
WINDOW 0 -32 56 VBottom 2
WINDOW 3 32 56 VTop 2
WINDOW 123 0 0 Left 0
WINDOW 39 0 0 Left 0
SYMATTR InstName VNoise
SYMATTR Value 0
SYMBOL npn 560 112 R270
WINDOW 0 15 103 Left 2
WINDOW 3 20 -13 Left 2
SYMATTR InstName Q1
SYMATTR Value 2N3904
SYMBOL npn 608 32 R270
WINDOW 0 15 103 Left 2
WINDOW 3 20 -13 Left 2
SYMATTR InstName Q2
SYMATTR Value FZT849
SYMBOL pnp 560 480 M90
WINDOW 0 18 -12 Left 2
WINDOW 3 7 110 Left 2
SYMATTR InstName Q3
SYMATTR Value 2N3906
SYMBOL pnp 608 544 M90
SYMATTR InstName Q4
SYMATTR Value 2SAR293P
SYMBOL voltage 1408 96 R0
WINDOW 123 0 0 Left 0
WINDOW 39 0 0 Left 0
SYMATTR InstName VFault
SYMATTR Value PULSE(0 35 30m 10u 10u 10m)
SYMBOL res 1392 16 R0
SYMATTR InstName R5
SYMATTR Value 50
SYMBOL zener 1024 96 M180
WINDOW 0 42 29 Left 2
WINDOW 3 81 29 Left 2
SYMATTR InstName D7
SYMATTR Value BZX84C15L
SYMBOL zener 1024 544 M180
WINDOW 0 40 31 Left 2
WINDOW 3 80 33 Left 2
SYMATTR InstName D8
SYMATTR Value BZX84C15L
SYMBOL LED 1264 432 R180
WINDOW 0 24 64 Left 2
WINDOW 3 24 0 Left 2
SYMATTR InstName D9
TEXT 200 736 Left 2 !.MODEL 1N4001 D(\n+IS=1.22478e-08 RS=0.0414786 N=1.83369 EG=0.6\n+XTI=0.05 BV=50 IBV=5e-08 CJO=1e-11\n+VJ=0.7 M=0.5 FC=0.5 TT=1e-09\n+KF=0 AF=1)
TEXT -196 700 Left 2 !.tran 0 50m 0 startup
