Version 4
SHEET 1 2232 2000
WIRE 160 -32 64 -32
WIRE 384 -32 240 -32
WIRE 448 -32 384 -32
WIRE 656 -32 448 -32
WIRE 912 -32 832 -32
WIRE 976 -32 912 -32
WIRE 1136 -32 976 -32
WIRE 1200 -32 1136 -32
WIRE 1584 -32 1200 -32
WIRE 656 -16 656 -32
WIRE 384 32 384 -32
WIRE 912 32 912 -32
WIRE 976 32 976 -32
WIRE 64 160 64 -32
WIRE 1200 160 1200 -32
WIRE 1584 192 1584 -32
WIRE 736 240 736 208
WIRE 832 240 832 -32
WIRE 832 240 736 240
WIRE 448 256 448 -32
WIRE 64 288 64 240
WIRE 64 288 -16 288
WIRE 384 288 384 96
WIRE 384 288 64 288
WIRE 496 288 384 288
WIRE 592 288 496 288
WIRE 656 288 592 288
WIRE 832 288 656 288
WIRE 912 288 912 96
WIRE 912 288 832 288
WIRE 976 288 976 96
WIRE 976 288 912 288
WIRE 1200 288 1200 240
WIRE 1200 288 976 288
WIRE 1584 304 1584 256
WIRE 1584 304 1472 304
WIRE 1664 304 1584 304
WIRE 1856 304 1744 304
WIRE -16 320 -16 288
WIRE 1200 320 1200 288
WIRE 64 352 64 288
WIRE 1472 352 1472 304
WIRE 1584 352 1584 304
WIRE 496 368 496 288
WIRE 832 368 832 288
WIRE 1856 368 1856 304
WIRE 656 448 656 288
WIRE 1472 448 1472 432
WIRE 384 480 384 288
WIRE 912 480 912 288
WIRE 976 480 976 288
WIRE 496 512 496 448
WIRE 528 512 496 512
WIRE 832 512 832 448
WIRE 832 512 784 512
WIRE 832 528 832 512
WIRE 64 624 64 432
WIRE 384 624 384 544
WIRE 384 624 64 624
WIRE 448 624 448 320
WIRE 448 624 384 624
WIRE 528 624 448 624
WIRE 832 624 832 608
WIRE 832 624 784 624
WIRE 912 624 912 544
WIRE 912 624 832 624
WIRE 976 624 976 544
WIRE 976 624 912 624
WIRE 1120 624 976 624
WIRE 1200 624 1200 400
WIRE 1200 624 1120 624
WIRE 1584 624 1584 416
WIRE 1584 624 1200 624
FLAG -16 320 0
FLAG 1136 -32 VOUT+
FLAG 1120 624 VOUT-
FLAG 1856 448 0
FLAG 1472 448 0
SYMBOL cap 368 480 R0
SYMATTR InstName C1
SYMATTR Value 10µ
SYMATTR SpiceLine V=25 Irms=0 Rser=0.001 Lser=0 mfg="TDK" pn="C575OX7RIE106M" type="X7R"
SYMBOL cap 368 32 R0
SYMATTR InstName C2
SYMATTR Value 10µ
SYMATTR SpiceLine V=25 Irms=0 Rser=0.001 Lser=0 mfg="TDK" pn="C575OX7RIE106M" type="X7R"
SYMBOL cap 432 256 R0
WINDOW 0 -25 3 Left 2
WINDOW 3 -9 57 Left 2
SYMATTR InstName C3
SYMATTR Value 0.1µ
SYMATTR SpiceLine V=50 Irms=0 Rser=0.0488383 Lser=600p mfg="Würth Elektronik" pn="885012205086 WCAP-CSGP 0402" type="X7R"
SYMBOL cap 960 480 R0
SYMATTR InstName C6
SYMATTR Value 10µ
SYMATTR SpiceLine V=25 Irms=0 Rser=0.001 Lser=0 mfg="TDK" pn="C575OX7RIE106M" type="X7R"
SYMBOL cap 960 32 R0
SYMATTR InstName C7
SYMATTR Value 10µ
SYMATTR SpiceLine V=25 Irms=0 Rser=0.001 Lser=0 mfg="TDK" pn="C575OX7RIE106M" type="X7R"
SYMBOL polcap 896 32 R0
WINDOW 0 23 -10 Left 2
WINDOW 3 -32 -12 Left 2
SYMATTR InstName C9
SYMATTR Value 47µ
SYMATTR Description Capacitor
SYMATTR Type cap
SYMATTR SpiceLine V=6.3 Irms=36m Rser=1.35945 Lser=2.49256n mfg="Würth Elektronik" pn="865230142003 WCAP-AS5H 5x5,5" type="Al electrolytic"
SYMBOL polcap 896 480 R0
WINDOW 0 23 -10 Left 2
WINDOW 3 -32 -12 Left 2
SYMATTR InstName C10
SYMATTR Value 47µ
SYMATTR Description Capacitor
SYMATTR Type cap
SYMATTR SpiceLine V=6.3 Irms=36m Rser=1.35945 Lser=2.49256n mfg="Würth Elektronik" pn="865230142003 WCAP-AS5H 5x5,5" type="Al electrolytic"
SYMBOL voltage 256 -32 R90
WINDOW 0 -32 56 VBottom 2
WINDOW 3 32 56 VTop 2
WINDOW 123 0 0 Left 0
WINDOW 39 0 0 Left 0
SYMATTR InstName VNoise
SYMATTR Value 0
SYMBOL voltage 1856 352 R0
WINDOW 123 0 0 Left 0
WINDOW 39 0 0 Left 0
SYMATTR InstName VFault
SYMATTR Value PULSE(0 40 1m 10u 10u 10m)
SYMBOL res 1760 288 R90
WINDOW 0 0 56 VBottom 2
WINDOW 3 32 56 VTop 2
SYMATTR InstName RProbe
SYMATTR Value 50
SYMBOL res 1184 144 R0
SYMATTR InstName RLoad
SYMATTR Value 50
SYMBOL res 1184 304 R0
SYMATTR InstName RLoad1
SYMATTR Value 200
SYMBOL diode 1600 416 R180
WINDOW 0 -43 60 Left 2
WINDOW 3 -142 6 Left 2
SYMATTR InstName D4
SYMATTR Value BAV199HM
SYMBOL diode 1600 256 R180
WINDOW 0 -43 58 Left 2
WINDOW 3 -147 25 Left 2
SYMATTR InstName D8
SYMATTR Value BAV199HM
SYMBOL res 1456 336 R0
SYMATTR InstName RTerm
SYMATTR Value 50k
SYMBOL voltage 64 144 R0
WINDOW 123 24 124 Left 2
WINDOW 39 0 0 Left 0
SYMATTR InstName V1
SYMATTR Value 18
SYMATTR Value2 AC 1
SYMBOL voltage 64 336 R0
WINDOW 123 24 124 Left 2
WINDOW 39 0 0 Left 0
SYMATTR InstName V2
SYMATTR Value 18
SYMATTR Value2 AC -1
SYMBOL PowerProducts\\LT3088 656 96 R0
SYMATTR InstName U1
SYMBOL res 576 192 R0
SYMATTR InstName R1
SYMATTR Value 300k
SYMBOL PowerProducts\\LT1185 656 560 R0
SYMATTR InstName U2
SYMBOL res 816 512 R0
SYMATTR InstName R2
SYMATTR Value 10658
SYMBOL res 816 352 R0
SYMATTR InstName R3
SYMATTR Value 2k
SYMBOL res 480 352 R0
SYMATTR InstName R4
SYMATTR Value 4.3k
TEXT 200 736 Left 2 !.MODEL 1N4001 D(\n+IS=1.22478e-08 RS=0.0414786 N=1.83369 EG=0.6\n+XTI=0.05 BV=50 IBV=5e-08 CJO=1e-11\n+VJ=0.7 M=0.5 FC=0.5 TT=1e-09\n+KF=0 AF=1)
TEXT -200 704 Left 2 !;.tran 0 50m 0 5u\n.ac dec 100 1 3.5Meg
TEXT 200 936 Left 2 !.model LED D(Is=1e-19 N=1.6 Rs=2.5 Eg=2.1)
